1675166958.361593s 1 https://api.dandiarchive.org/api/zarr/873100dd-7816-40ba-ac3e-ce6982ecd520/files?prefix=0%2F0%2F0%2F11%2F0%2F54&download=true
1675369540.870656s 1 https://dandiarchive.s3.amazonaws.com/zarr/873100dd-7816-40ba-ac3e-ce6982ecd520/0/0/0/11/0/54?versionId=MT3DKLu_VNU8euHTdasRIq6.iilCIXWZ
1675369541.444807s 1 https://api.dandiarchive.org/api/zarr/873100dd-7816-40ba-ac3e-ce6982ecd520/files?prefix=0%2F0%2F0%2F11%2F0%2F54&download=true
